FoamFile
{
    version     2.0;
    format      ascii;
    class       volScalarField;
    location    "0";
    object      nuTilda;
}
// * * * * * * * * * * * * * * * * * * * * * * * * * * * * * * * * * * * * * //

dimensions      [0 2 -1 0 0 0 0];

internalField   uniform 4e-05;

boundaryField
{
    frontAndBack
    {
        type            slip;
    }
    inlet
    {
        type            fixedValue;
        value           uniform 4e-05;
    }
    outlet
    {
        type            zeroGradient;
    }
    lowerWall
    {
        type            compressible::nuTildaWallFunction;
        value           uniform 0;
    }
    upperWall
    {
        type            slip;
    }
    puyo
    {
        type            compressible::nuTildaWallFunction;
        value           uniform 0;
    }
}


// ************************************************************************* //
