FoamFile
{
    version     2.0;
    format      ascii;
    class       dictionary;
    object      thermophysicalProperties;
}
// * * * * * * * * * * * * * * * * * * * * * * * * * * * * * * * * * * * * * //

thermoType      hPsiThermo<pureMixture<sutherlandTransport<specieThermo<hConstThermo<perfectGas>>>>>;

// mixture         air 1 28.9 1007 0 1.84e-05 0.7;
// mixture         air 1 28.9 1007 0 0.0 0.7;
// mixture         air 1 28.9644 1004.5 2.544e+06 1.78938e-05 0.7;
// mixture         air 1 28.9644 1004.5 0 1.78938e-05 0.7;

// mixture         air 1 28.9644 1004.5 2.544e+06 1.458e-06 110.4;
mixture         air 1 28.9644 1004.5 0.0 1.458e-06 110.4;

// ************************************************************************* //
